*Heading
Scovazzi et al. (2023) Figure 14 - unstructured mixed Tet4 block
** Generated by abaqus_block_fig14/generate_inp.py; do not edit manually.
** Unit system: N, mm. Quarter block: 1 x 1 x 1 mm.
** Gmsh target h=0.0625, seed=14032023.
*Preprint, echo=NO, model=NO, history=NO, contact=NO
*Physical Constants, absolute zero=-273.15
*Node
1, 0, 0, 1
2, 0, 0, 0
3, 0, 0.5, 1
4, 0, 0.5, 0
5, 0.5, 0, 0
6, 0.5, 0, 1
7, 0.5, 0.5, 1
8, 0.5, 0.5, 0
9, 0, 1, 1
10, 0, 1, 0
11, 0.5, 1, 1
12, 0.5, 1, 0
13, 1, 0, 1
14, 1, 0, 0
15, 1, 0.5, 1
16, 1, 0.5, 0
17, 1, 1, 1
18, 1, 1, 0
19, 0, 0, 0.0625
20, 0, 0, 0.125
** ... 4611 like lines cut
** Mixed volume elements: (U1,U2,U3,thetat) at every node.
*User Element, type=U1, nodes=4, coordinates=3, properties=5, variables=1, unsymm
1, 2, 3, 11
*Element, type=U1, elset=MIXED_TET4
1, 958, 959, 2708, 2558
2, 2596, 2803, 2620, 2533
3, 2790, 2537, 664, 2722
4, 778, 2606, 2586, 2797
5, 2537, 2825, 664, 2843
6, 2545, 2836, 2806, 2846
7, 2806, 2836, 623, 2846
8, 2665, 940, 2551, 2725
9, 2537, 2559, 2722, 2862
10, 3009, 832, 2954, 2595
11, 778, 2606, 777, 2586
12, 2537, 2676, 664, 2825
13, 47, 739, 2865, 2927
14, 2513, 2612, 2560, 2710
15, 2574, 2722, 2559, 2862
16, 2992, 1001, 3028, 114
17, 2565, 2575, 2511, 2832
18, 2552, 2667, 714, 2733
19, 2530, 2760, 2555, 2674
20, 770, 2803, 2694, 2569
** ... 21341 like lines cut
*Elset, elset=UEL_H_01
1831, 591, 13612, 10815, 9577, 14171, 4257, 14685, 14512, 5670, 1812, 15442, 13321, 4735, 532, 9214
15481, 13890, 5640, 15350, 6984, 20801, 12222, 664, 15477, 1144, 14467, 4588, 15448, 21346, 1656, 15400
10981, 21347, 11905, 13312, 4576, 409, 16777, 4673, 17629, 15402, 15438, 10119, 2677, 437, 4685, 14694
5718, 4624, 20899, 20788, 10208, 798, 15435, 12287, 808, 17823, 7357, 12146, 7733, 18757, 20750, 11216
9558, 2043, 19231, 3533, 20761, 4958, 7287, 14970, 1001, 10391, 4653, 10141, 12661, 17247, 10362, 20865
16083, 15474, 16352, 10179, 4668, 20584, 4373, 10016, 15756, 10123, 2290, 4686, 16049, 14047, 15441, 18409
10115, 4712, 6296, 10989, 4671, 3837, 3441, 14189, 11758, 15568, 9191, 9629, 20702, 15484, 8119, 20837
14245, 14648, 6249, 16, 1790, 15482, 15998, 13535, 4981, 16327, 6433, 12080, 15764, 12389, 21242, 17003
11123, 2341, 4562, 14917, 6721, 5630, 15621, 1821, 6772, 14807, 12169, 16754, 17139, 17581, 597, 5868
1862, 9533, 10912, 7328, 7433, 20874, 4957, 4630, 4619, 12349, 15521, 21076, 11183, 10586, 5112, 10220
19925, 6786, 17366, 14466, 10655, 12453, 10057, 10357, 198, 8528, 3928, 20023, 11908, 16644, 9951, 11170
20738, 13069, 15775, 517, 15035, 6950, 1675, 15401, 12223, 14730, 20811, 13703, 15735, 11799, 16673, 2495
17837, 209, 21061, 10941, 10389, 15471, 15296, 20764, 5558, 759, 306, 1081, 5777, 10121, 17692, 15754
15537, 15925, 21077, 10585, 13185, 4460, 809, 15420, 16036, 20739, 6019, 16060, 7808, 21007, 15531, 17017
18384, 15414, 6309, 6685, 17915, 15387, 7371, 6567, 15315, 4628, 12305, 379, 4705, 10075, 7855, 6119
16739, 20819, 18121, 20807, 2861, 16713, 19210, 11210, 13424, 3143, 17086, 9841, 5582, 951, 890, 15773
15347, 4231, 4702, 16524, 16580, 10892, 10168, 9587, 15080, 20157, 4762, 1960, 15536, 20671, 11506, 3565
19475, 11985, 10178, 6803, 14922, 14720, 18663, 12495, 10903, 1866, 11544, 14394, 10118, 14679, 4967, 10120
12929, 8832, 5295, 6504, 20841, 3376, 418, 9390, 12417, 254, 4938, 5493, 19532, 16398, 10148, 19708
20769, 402, 5190, 16058, 21072, 21085, 20343, 6731, 10759, 13651, 203, 21008, 20873, 13729, 13785, 20858
** ... 64 like lines cut
*UEL Property, elset=UEL_H_01
80.194, 400889.806, 2, 0.1, 0.0236514309243
*Elset, elset=UEL_H_02
19572, 16298, 4405, 5772, 10343, 17899, 8136, 16873, 6816, 14295, 13961, 3732, 21326, 15653, 19947, 7370
3845, 15850, 332, 11608, 9447, 11303, 13320, 10216, 15264, 16505, 10341, 12167, 4455, 19638, 4933, 3716
15700, 4681, 20265, 6347, 20859, 4914, 4852, 20836, 14129, 7750, 10678, 10238, 20502, 10706, 9502, 940
4855, 15302, 15388, 3381, 13011, 15673, 863, 10088, 10274, 2809, 16280, 1989, 19930, 5068, 13297, 3828
1117, 7799, 15062, 14664, 13023, 14351, 14990, 15666, 7505, 10207, 21103, 2803, 21006, 4857, 20274, 15598
4396, 3645, 15075, 7743, 7647, 3720, 1729, 20455, 10321, 6820, 15715, 14623, 7455, 10385, 8910, 19989
20403, 19521, 20992, 9835, 20948, 18105, 11576, 13144, 10710, 17124, 15776, 17557, 14962, 9380, 21158, 9870
9467, 15771, 19606, 14375, 15643, 21027, 4954, 3179, 10807, 19340, 15399, 8444, 20339, 15072, 9048, 3608
4179, 12992, 15657, 20555, 8889, 21197, 21020, 20422, 6778, 20766, 21314, 1680, 17026, 10374, 13258, 3470
4540, 4798, 15679, 2696, 4749, 15386, 20538, 6360, 16004, 15101, 14175, 19917, 10345, 2574, 13006, 17531
20075, 15654, 17701, 15634, 20211, 20174, 13474, 3670, 19913, 13956, 17875, 2812, 779, 21046, 4214, 10416
9930, 6466, 1859, 363, 3025, 16724, 3847, 9409, 5318, 13585, 12959, 13118, 8270, 13862, 14484, 18612
4406, 15662, 4867, 4255, 3980, 4057, 2301, 4951, 4292, 5194, 5238, 6091, 10380, 10338, 20846, 20464
15090, 7642, 16472, 5219, 13868, 15649, 6536, 5709, 14307, 12968, 4723, 11491, 9957, 11714, 9510, 4508
3167, 7220, 12802, 19083, 10252, 21024, 4893, 4844, 986, 15705, 15726, 4889, 15681, 10515, 17895, 8416
10064, 15223, 18923, 17670, 69, 4116, 17985, 15824, 4376, 13266, 15589, 15364, 12215, 12884, 15446, 4812
9550, 17468, 9221, 8754, 13278, 21035, 718, 3334, 12138, 10335, 7768, 16898, 12860, 11626, 4908, 18662
20994, 10349, 9001, 20492, 20957, 4829, 17332, 21030, 13227, 8088, 4138, 4350, 19348, 16395, 19070, 19721
20921, 19495, 12963, 9589, 10186, 9620, 5294, 7109, 18477, 9325, 11925, 2746, 20643, 15622, 15697, 20277
14023, 16553, 11179, 20773, 3580, 9373, 10329, 20547, 14176, 15747, 9433, 15230, 7989, 8511, 15916, 20746
** ... 64 like lines cut
*UEL Property, elset=UEL_H_02
80.194, 400889.806, 2, 0.1, 0.0259950894944
*Elset, elset=UEL_H_03
18555, 3491, 14049, 5209, 20689, 10184, 7988, 10188, 20179, 9040, 12338, 16941, 8782, 10635, 10699, 17546
16977, 8317, 9776, 9675, 11883, 14052, 3582, 19927, 15781, 15183, 4583, 21159, 5280, 10603, 10332, 4128
20741, 4026, 18816, 8474, 2176, 14463, 2329, 14540, 5198, 3955, 16069, 10342, 14452, 8937, 11025, 10668
10670, 18149, 14211, 13500, 11813, 8071, 20855, 12778, 18752, 2538, 2874, 14520, 5281, 10531, 2482, 20400
3150, 727, 6112, 16367, 15053, 12849, 17164, 18360, 9699, 12904, 4326, 14357, 19273, 9245, 14910, 4296
20340, 4794, 10671, 3039, 8959, 9014, 7327, 12674, 10066, 6656, 10832, 18945, 16394, 4622, 6673, 20519
21166, 16291, 20625, 20536, 16485, 10667, 12271, 6001, 8813, 8704, 4198, 13698, 3161, 15166, 20266, 7219
9728, 3620, 15227, 9294, 2337, 20920, 20828, 20029, 15285, 2845, 5239, 5241, 1610, 1491, 1998, 10689
18229, 3736, 2643, 11744, 4820, 15185, 16667, 14068, 15592, 17376, 16966, 3644, 4303, 6952, 19175, 17313
9727, 10036, 9936, 1060, 9916, 8122, 10301, 4803, 7122, 18790, 20214, 8240, 4799, 4182, 1273, 5397
10149, 12638, 9340, 19920, 9968, 3383, 19196, 15455, 4506, 19095, 19118, 20971, 3190, 17232, 2014, 18546
8555, 8684, 15722, 16064, 3710, 12206, 4835, 10203, 17600, 21149, 3647, 16071, 965, 13947, 10522, 4896
4754, 12106, 7323, 1219, 14743, 13806, 20944, 15546, 14526, 4876, 3171, 10697, 2383, 4215, 3047, 2888
19812, 16153, 20958, 2633, 2697, 18148, 18672, 14980, 9494, 5060, 7119, 5940, 15023, 5941, 5689, 4802
2949, 12619, 2378, 958, 15379, 15416, 20913, 9838, 1270, 18867, 7156, 9152, 12442, 10192, 10814, 17034
10300, 3963, 4309, 20956, 5082, 10247, 4997, 8996, 12055, 19860, 18554, 19537, 4806, 10627, 10625, 8029
12966, 16952, 17732, 20727, 15115, 9807, 5243, 9199, 18542, 6780, 19897, 17399, 10307, 16032, 13511, 17177
19510, 20123, 866, 17432, 4436, 12098, 15515, 14695, 10251, 9902, 18620, 18661, 19942, 18975, 19434, 18309
11961, 9231, 14896, 14387, 16211, 2188, 20034, 4139, 12033, 4208, 18472, 5360, 15383, 3080, 17448, 10259
20941, 5635, 10736, 20342, 18589, 4097, 6575, 4903, 4826, 9929, 20496, 20952, 3784, 18821, 13083, 4184
** ... 64 like lines cut
*UEL Property, elset=UEL_H_03
80.194, 400889.806, 2, 0.1, 0.0277871578771
*Elset, elset=UEL_H_04
18018, 770, 4371, 9498, 9825, 9711, 5258, 17334, 4407, 5844, 1805, 16897, 10231, 20947, 20979, 17790
15489, 2893, 9049, 13373, 21038, 20420, 13507, 15542, 17498, 15147, 9872, 14875, 12002, 8191, 7434, 10312
9068, 9605, 20641, 14613, 5248, 2277, 2349, 3426, 14208, 15145, 6233, 15502, 18911, 15117, 11345, 20121
9588, 1101, 15545, 14151, 17864, 12772, 12927, 15186, 15988, 12275, 2196, 14408, 12038, 4728, 8836, 21146
19871, 15326, 9402, 9856, 21273, 10509, 20043, 14999, 15702, 20897, 18748, 20881, 15365, 7107, 19826, 13837
1353, 8610, 6999, 2881, 5075, 19246, 16001, 1305, 4507, 13430, 9256, 9252, 10359, 20869, 14818, 14028
13070, 14384, 20616, 15461, 20122, 14403, 9824, 7376, 13946, 15299, 2236, 4930, 16680, 21341, 4581, 21026
8931, 1939, 19894, 8699, 15767, 20151, 9998, 14251, 17447, 9084, 8930, 2031, 10175, 1874, 6315, 15628
10698, 8976, 15453, 15520, 10250, 19561, 19985, 19901, 19542, 14904, 15533, 10456, 15514, 1139, 1278, 4442
10255, 10061, 18518, 14538, 14580, 9075, 2136, 10286, 6426, 14895, 18370, 3977, 13557, 13709, 13059, 3894
20805, 15703, 15257, 19639, 65, 10116, 10062, 13341, 9299, 15701, 1826, 10729, 15535, 20722, 4013, 15418
18856, 19873, 4358, 5930, 16813, 14667, 4037, 10641, 1915, 8346, 12587, 15005, 3900, 12834, 8097, 8686
20688, 20244, 13292, 3434, 13032, 19268, 16950, 13724, 12610, 19659, 9140, 16047, 16023, 9098, 11802, 9503
15613, 19517, 20771, 19716, 19669, 5877, 13386, 21176, 7205, 14952, 12191, 11057, 19766, 14086, 16790, 15433
19868, 16418, 3203, 2272, 3886, 20960, 5048, 3978, 5038, 4306, 14931, 741, 9879, 3936, 16012, 13905
4714, 20410, 3841, 21096, 14116, 14737, 4553, 15339, 1928, 15231, 4474, 18284, 17057, 6015, 9882, 9694
15094, 3972, 20707, 21004, 20989, 15706, 20427, 9176, 3238, 11757, 4472, 15357, 17713, 9020, 5180, 1699
4092, 10234, 10507, 10484, 2088, 20560, 19112, 19091, 3952, 14102, 18547, 20285, 10171, 2331, 20428, 8422
16344, 2954, 18616, 19704, 15317, 16474, 10473, 21048, 2977, 14510, 663, 18670, 15088, 12997, 10648, 10204
10723, 21307, 4633, 17877, 2700, 10511, 20504, 3100, 20845, 15201, 20366, 21186, 20590, 1240, 12362, 6343
** ... 64 like lines cut
*UEL Property, elset=UEL_H_04
80.194, 400889.806, 2, 0.1, 0.0295814869116
*Elset, elset=UEL_H_05
10487, 10265, 9784, 4218, 20178, 20086, 20283, 20465, 19302, 20762, 20252, 19304, 8878, 2107, 4502, 12684
15393, 20955, 15698, 20945, 19000, 13911, 21298, 20926, 19596, 20681, 4241, 15158, 15367, 15009, 8770, 15483
15256, 14603, 12900, 9579, 20876, 10005, 10269, 17840, 8461, 4725, 3743, 3824, 20774, 10693, 4541, 19816
20709, 20937, 10591, 13350, 6421, 10052, 10223, 7863, 14569, 5142, 7787, 2851, 9780, 10182, 14479, 19489
12670, 4670, 20936, 3550, 13700, 20879, 4167, 20848, 600, 1472, 13042, 12981, 13034, 14814, 14791, 15234
18511, 9986, 7075, 12876, 9443, 9759, 13021, 5697, 8854, 9136, 6098, 9508, 8258, 12789, 4495, 9811
15397, 13261, 20234, 6218, 9427, 2517, 14048, 14852, 19068, 10500, 3855, 14154, 15580, 14155, 2808, 15381
12026, 10013, 9966, 16054, 16053, 16055, 6824, 9868, 9996, 15375, 10096, 7792, 10014, 3829, 8785, 12646
13573, 5153, 7656, 20757, 4788, 19778, 14864, 8362, 4563, 4782, 3558, 4234, 15058, 14899, 3355, 20461
14259, 17551, 7305, 20804, 15259, 15728, 14101, 18659, 15217, 3570, 18722, 14416, 20615, 10042, 10109, 15153
4609, 10158, 10528, 10813, 12263, 15989, 1207, 453, 415, 19388, 19289, 2946, 8157, 14682, 9127, 15466
15551, 19653, 11195, 15132, 7083, 20542, 20831, 9970, 7636, 9950, 1898, 9736, 6508, 4161, 20974, 3488
20997, 5730, 14976, 2299, 15904, 11740, 3361, 15539, 15961, 9849, 9343, 9701, 14100, 15604, 15508, 9171
9512, 8174, 18395, 9095, 9488, 10155, 9169, 7713, 10108, 10156, 10553, 3592, 6448, 1156, 4789, 4509
9926, 18002, 7752, 754, 6653, 13814, 9531, 15428, 10028, 4696, 16037, 18635, 18634, 20793, 20740, 3864
5290, 2274, 4709, 2678, 9851, 15131, 10153, 8658, 10132, 9999, 9955, 8236, 4557, 10030, 12582, 20299
20832, 20901, 8001, 9475, 4555, 10248, 9733, 1640, 2013, 14205, 10632, 9239, 10631, 7548, 5806, 10630
8698, 605, 20711, 20972, 18156, 20290, 20503, 20840, 1375, 19908, 18940, 10978, 2024, 11912, 10874, 14549
14935, 9037, 2858, 8132, 3408, 12718, 14718, 15151, 14081, 14832, 4623, 4787, 15711, 18020, 15395, 9983
19697, 17644, 12421, 13591, 8322, 8701, 20431, 20083, 10448, 5939, 8288, 9295, 20868, 4449, 10219, 9112
** ... 64 like lines cut
*UEL Property, elset=UEL_H_05
80.194, 400889.806, 2, 0.1, 0.0307519656812
*Elset, elset=UEL_H_06
9677, 10162, 540, 11704, 3878, 9471, 20212, 20433, 15908, 20284, 18377, 14570, 14174, 18421, 1306, 15060
15372, 959, 4018, 7486, 9658, 9631, 9451, 12309, 2362, 10063, 15629, 12109, 20364, 8613, 21324, 5621
7929, 8451, 14279, 11551, 4413, 4243, 4687, 7229, 10070, 12456, 2231, 20915, 2884, 9505, 9865, 11388
14332, 14967, 13945, 15497, 3030, 18040, 9988, 4578, 21137, 5098, 18461, 20235, 20236, 4530, 9532, 8024
13344, 9846, 4715, 5367, 14860, 20999, 5352, 3722, 20673, 2455, 7300, 18991, 21016, 3500, 13472, 16019
15390, 16034, 3151, 14494, 12052, 18415, 3944, 4722, 4398, 15463, 15096, 11865, 4475, 13766, 20233, 14764
21182, 19660, 13031, 19620, 2602, 4461, 14271, 15405, 12730, 4500, 18964, 7207, 2307, 8901, 10049, 9428
20730, 19623, 3863, 17312, 4052, 19747, 5504, 3597, 3258, 4503, 3723, 4415, 19965, 15250, 12238, 20269
5554, 16245, 5931, 5100, 4607, 4341, 110, 3354, 4729, 4505, 14753, 7515, 9643, 20393, 20844, 2541
9669, 19740, 9850, 8323, 9947, 9895, 21199, 9100, 4346, 10310, 9563, 14474, 20566, 20780, 20712, 20675
18450, 14429, 17445, 4432, 1302, 4042, 20129, 19198, 15426, 20326, 3535, 11860, 19835, 13624, 20399, 4693
5283, 4112, 5008, 9174, 9243, 19508, 6959, 14765, 12412, 19745, 4699, 16270, 10478, 9526, 6509, 9077
9296, 6252, 15047, 18580, 6883, 3762, 19856, 12872, 5067, 4349, 4192, 7498, 3499, 8403, 15593, 20049
10888, 4421, 18515, 20344, 20611, 18810, 1365, 14038, 18067, 15877, 2877, 3571, 4247, 15146, 13448, 15084
14437, 13717, 15352, 11975, 9933, 10326, 914, 13111, 14936, 643, 14871, 9091, 4278, 3901, 8223, 8533
7043, 7268, 7712, 6525, 5104, 10147, 10506, 3072, 13738, 4203, 3388, 9251, 4416, 2820, 12113, 9967
8810, 2249, 9739, 21336, 5078, 6702, 15541, 20432, 12676, 8203, 9932, 1291, 9414, 2765, 7710, 14995
4339, 5005, 4780, 9827, 3919, 18351, 13635, 94, 1237, 15303, 17983, 18165, 15288, 9357, 4428, 18697
4717, 17620, 6373, 20411, 9657, 13537, 15102, 13160, 14994, 11875, 6171, 6258, 20321, 11196, 13067, 20062
19802, 15487, 13981, 15173, 4906, 13137, 18877, 18034, 9644, 4804, 8964, 9525, 6506, 8941, 8954, 3669
** ... 64 like lines cut
*UEL Property, elset=UEL_H_06
80.194, 400889.806, 2, 0.1, 0.0317647111353
*Elset, elset=UEL_H_07
4172, 4073, 14104, 4106, 2761, 6128, 18444, 18702, 18269, 19888, 16104, 20696, 21340, 558, 15837, 21023
7690, 17593, 15122, 21147, 21359, 20627, 17728, 2259, 15258, 1485, 15693, 5218, 6383, 15321, 13217, 2919
4980, 13152, 6682, 15137, 20535, 14092, 12475, 8506, 20367, 15124, 7281, 8480, 12489, 26, 2706, 21306
20699, 19378, 20812, 5418, 8177, 12451, 14427, 13024, 12578, 3708, 1441, 20335, 19862, 8135, 20102, 14671
8463, 19884, 6923, 4279, 8526, 5074, 20692, 14802, 9362, 4644, 14643, 4850, 12847, 8292, 4796, 9128
19284, 13456, 17454, 18759, 6972, 6145, 7562, 9376, 1344, 20298, 21201, 10589, 19350, 14610, 9691, 21229
16399, 10772, 9535, 8420, 20354, 19159, 4907, 21134, 19482, 4400, 14355, 67, 3600, 16641, 17917, 20192
21279, 18497, 3851, 2873, 2726, 8678, 8376, 6375, 9131, 7556, 15111, 8585, 11828, 17624, 11752, 7402
9220, 11861, 7730, 8778, 14188, 9223, 19307, 14446, 19558, 10264, 18039, 27, 10817, 20287, 18818, 17104
20720, 20180, 8090, 20710, 16657, 19363, 8441, 21143, 1158, 20791, 18956, 13415, 20022, 17576, 12564, 8084
19893, 10417, 4226, 5340, 15863, 2471, 19326, 20024, 15261, 9061, 13764, 13848, 21010, 20575, 20721, 13291
9435, 6749, 7770, 11199, 11699, 11426, 1151, 20260, 12885, 12046, 4521, 3145, 12565, 17858, 14234, 21241
2102, 13151, 12556, 9178, 9319, 10136, 1336, 20387, 4763, 4547, 4417, 2995, 3627, 2026, 2725, 4141
2486, 20302, 15134, 163, 20409, 219, 8911, 8921, 2062, 20133, 17991, 20215, 17874, 13816, 19024, 9609
12715, 14338, 6700, 2571, 17543, 13580, 20658, 20981, 17795, 20640, 4604, 11801, 13931, 8134, 14400, 17335
12737, 11705, 9179, 3400, 15990, 10056, 13906, 18898, 11769, 19056, 20415, 13173, 14347, 9236, 4422, 4513
5365, 12120, 19271, 15251, 14772, 14083, 19909, 13689, 8794, 14389, 19933, 15212, 10196, 20470, 5040, 15699
19635, 20303, 3243, 2591, 6569, 8226, 14688, 12399, 10935, 15348, 3783, 20194, 3342, 14249, 9651, 8374
17469, 3424, 7921, 20736, 15467, 21344, 17654, 3033, 15573, 10032, 3814, 13653, 1038, 3712, 2674, 5139
9912, 9653, 4573, 20631, 14537, 4740, 635, 15020, 5173, 6602, 20890, 8616, 8334, 10025, 10152, 20483
** ... 64 like lines cut
*UEL Property, elset=UEL_H_07
80.194, 400889.806, 2, 0.1, 0.0328793235894
*Elset, elset=UEL_H_08
6804, 21093, 6677, 7246, 8887, 1980, 1016, 11129, 19664, 9907, 8462, 20938, 8436, 99, 8879, 9554
10040, 10568, 3043, 4061, 15000, 15263, 15569, 20906, 19255, 5166, 9943, 20076, 15879, 8693, 14090, 4186
11922, 19819, 3331, 2623, 10561, 2592, 6987, 13959, 7944, 9205, 2021, 13390, 13815, 14642, 14265, 11307
14322, 19141, 2253, 6566, 6669, 13602, 9334, 3208, 6918, 5383, 6270, 9880, 18244, 2520, 9753, 14774
2601, 19452, 11343, 5107, 19127, 17307, 9452, 9222, 758, 18779, 7707, 6633, 9350, 1125, 15630, 17825
13016, 832, 13060, 18303, 7925, 8018, 8277, 2795, 18230, 12656, 21179, 3058, 18680, 3003, 4393, 7068
14417, 8351, 17102, 17988, 2864, 15921, 13478, 3289, 13798, 13179, 21361, 13290, 10520, 1787, 13243, 16308
3192, 11651, 12314, 17689, 18957, 2012, 18796, 3442, 5013, 4526, 5334, 12705, 19939, 2570, 15825, 9142
3631, 8997, 8028, 20436, 13319, 2667, 14650, 15931, 4190, 12317, 14424, 8981, 14649, 17188, 17460, 2814
17373, 20085, 16906, 20201, 11914, 9602, 6964, 4149, 15567, 15797, 10103, 13678, 12347, 18606, 17592, 13629
6944, 13759, 18268, 9551, 13856, 15942, 875, 20377, 20423, 12939, 5030, 13929, 12555, 17814, 13932, 3683
18033, 9474, 4264, 3199, 13864, 19963, 5989, 15105, 7296, 7215, 2662, 18723, 17331, 13745, 7204, 19896
12861, 2324, 11433, 416, 8570, 9090, 21110, 6968, 740, 19622, 19987, 17870, 6776, 12111, 2487, 19887
6280, 10470, 20247, 20842, 13317, 14439, 3835, 18176, 6917, 12848, 8186, 12756, 731, 19809, 3397, 18932
12794, 17951, 2228, 18787, 913, 9405, 7972, 8007, 6038, 12102, 18253, 16818, 18463, 18537, 18131, 18920
19039, 18358, 6905, 629, 11496, 14723, 14358, 4254, 18488, 2268, 5177, 13613, 3844, 13458, 19067, 10459
3925, 4246, 20620, 11561, 15118, 13184, 4014, 8850, 6667, 14593, 20200, 5240, 16273, 3757, 14997, 17066
20808, 19630, 7669, 9690, 1266, 13169, 4986, 13387, 2572, 18406, 10139, 11235, 19886, 13817, 6585, 14140
13786, 19237, 16402, 5199, 2604, 5125, 2826, 161, 4336, 2346, 9134, 9298, 9437, 2302, 4943, 6482
11997, 6880, 17211, 9052, 9202, 14661, 3680, 8654, 5886, 1734, 17990, 9743, 12388, 2019, 12733, 8300
** ... 64 like lines cut
*UEL Property, elset=UEL_H_08
80.194, 400889.806, 2, 0.1, 0.03426624621
*Elset, elset=UEL_H_09
3891, 2441, 1590, 2786, 13231, 3940, 1694, 7396, 12905, 11635, 9617, 19553, 18306, 2202, 6552, 2217
3417, 14194, 14305, 2525, 764, 9578, 6938, 3639, 2839, 3760, 17740, 3508, 8842, 3726, 18863, 7592
11886, 12128, 2762, 10420, 12599, 2614, 6221, 16616, 617, 8659, 20109, 12593, 13882, 9007, 9335, 19413
10472, 5154, 16875, 6178, 18840, 10405, 18468, 17726, 14379, 2784, 8055, 8565, 12945, 10588, 19578, 11600
9770, 6275, 2051, 8748, 16876, 1225, 9580, 16221, 9528, 13175, 8143, 17638, 13540, 3274, 4157, 13382
9892, 13501, 20275, 11282, 6523, 7722, 13029, 2813, 13393, 19236, 18753, 3122, 3991, 4319, 17528, 12004
12243, 5468, 6765, 7006, 8061, 11428, 4499, 12712, 8085, 1487, 19823, 8527, 8333, 11254, 14339, 17018
1997, 11323, 8391, 2968, 14865, 2282, 134, 6747, 15906, 5079, 17316, 8576, 746, 2544, 3496, 14517
13530, 11251, 2460, 20008, 3449, 16309, 18198, 16573, 12056, 397, 7015, 5203, 8063, 8036, 4010, 19992
14320, 17178, 18256, 19682, 8002, 5661, 17142, 1212, 20581, 13492, 13737, 20371, 3412, 8768, 13695, 12708
16988, 10419, 3418, 3532, 9289, 7199, 12579, 14089, 7599, 11149, 2275, 5563, 3313, 11113, 3123, 13090
9057, 16760, 20824, 19012, 711, 15969, 9540, 13823, 1609, 19009, 135, 1860, 585, 201, 12184, 12851
14039, 7359, 13442, 19157, 11640, 15807, 19052, 20322, 17525, 20718, 7471, 12100, 2316, 8834, 441, 9355
678, 18598, 7756, 8044, 19100, 10214, 2944, 1454, 7655, 2953, 1829, 18884, 14605, 3993, 12163, 19479
13239, 14354, 8357, 9582, 18739, 18279, 3402, 9777, 9424, 8078, 13767, 4040, 18703, 566, 18755, 16903
16376, 14587, 19225, 20213, 14489, 17039, 2766, 11033, 2540, 9459, 13249, 14391, 3610, 8929, 14374, 1901
13965, 13803, 19002, 16035, 15939, 14395, 3166, 3372, 7702, 2518, 13519, 4117, 8014, 9436, 2904, 19543
9516, 11197, 19184, 11743, 17678, 20090, 1328, 18254, 1843, 6740, 19810, 17314, 3986, 10877, 8003, 6814
14024, 18811, 20219, 17488, 14215, 2615, 7404, 20973, 12259, 18382, 18780, 6769, 14434, 16146, 12871, 18519
18961, 632, 2595, 18366, 3450, 2070, 1168, 10499, 7868, 6014, 14405, 11825, 12251, 13607, 8228, 13847
** ... 64 like lines cut
*UEL Property, elset=UEL_H_09
80.194, 400889.806, 2, 0.1, 0.0356330670151
*Elset, elset=UEL_H_10
3257, 9536, 19160, 5178, 16200, 6809, 6815, 2366, 7705, 21163, 10046, 13619, 7654, 9278, 17450, 20142
3327, 11816, 11995, 17518, 7763, 2619, 4389, 12252, 8216, 4032, 243, 8456, 6535, 9719, 17665, 16080
8410, 1453, 12160, 6866, 1549, 2468, 14572, 16410, 12533, 12384, 12853, 14581, 4151, 17340, 17497, 16093
1770, 6478, 2421, 18604, 21144, 1751, 7964, 20438, 19227, 15119, 3852, 3568, 3505, 3700, 20210, 18216
2931, 13776, 3038, 19318, 13212, 9123, 9874, 1202, 12611, 20115, 8015, 1493, 16018, 1947, 2513, 13365
2514, 20051, 13301, 2567, 1339, 9744, 430, 8874, 12991, 12029, 17214, 300, 17436, 16415, 19520, 12082
12689, 2435, 21313, 11125, 2793, 3812, 18669, 13957, 20088, 11788, 17429, 7169, 16513, 6909, 19379, 3256
16252, 8593, 1215, 7914, 3301, 3328, 15391, 8252, 11351, 11973, 11913, 14744, 4081, 6848, 15087, 13550
16836, 1467, 14527, 16940, 1475, 15809, 7922, 10937, 2859, 11136, 11805, 12957, 2611, 9211, 6888, 5102
5356, 2278, 961, 11419, 18644, 17935, 17288, 18017, 16845, 15198, 7258, 2714, 3010, 6118, 10769, 13858
6398, 6002, 3114, 109, 7351, 2098, 18408, 7831, 9009, 19446, 5070, 6717, 6572, 18502, 1745, 5062
16577, 3691, 7366, 5420, 18189, 3791, 15181, 17931, 2691, 18510, 11499, 17182, 5522, 11864, 19832, 14113
20206, 13128, 6090, 232, 8188, 7270, 8299, 1687, 13674, 6096, 19727, 18974, 12964, 19147, 5130, 13938
2776, 3625, 7230, 13881, 14114, 13334, 9455, 18737, 3827, 1741, 21132, 6710, 7317, 16081, 9685, 20650
20191, 11311, 3705, 12821, 4419, 2508, 17956, 11552, 8052, 17050, 15076, 17942, 18368, 9783, 7641, 20753
5039, 6590, 7623, 2153, 18299, 6818, 7688, 8787, 8164, 2036, 7275, 8820, 16984, 8182, 2790, 8201
7588, 17197, 11085, 15842, 1241, 11998, 3830, 2925, 7239, 18943, 7250, 17141, 9541, 6688, 21181, 4104
915, 2198, 19220, 18052, 2774, 11999, 20125, 196, 12130, 17011, 1195, 2862, 7804, 1646, 6811, 13699
5525, 13682, 41, 2805, 44, 3062, 4694, 21250, 13989, 4365, 3092, 14033, 3414, 12116, 9779, 957
16378, 8759, 3285, 17101, 12958, 5608, 8519, 16516, 9026, 8189, 6008, 16454, 14576, 19177, 5927, 11693
** ... 64 like lines cut
*UEL Property, elset=UEL_H_10
80.194, 400889.806, 2, 0.1, 0.0369396191292
*Elset, elset=UEL_H_11
13827, 13207, 13784, 7177, 2415, 7735, 16011, 14445, 12819, 7915, 14609, 7734, 19652, 3772, 351, 15960
15820, 2772, 5628, 7513, 16379, 15954, 3964, 9079, 1392, 977, 9576, 20272, 5819, 16814, 5610, 18523
2407, 19689, 12416, 19417, 19915, 21227, 13108, 13508, 9473, 7121, 14125, 11674, 166, 2405, 8561, 14130
11399, 1683, 3974, 3945, 12575, 2549, 12548, 7789, 19297, 12642, 11738, 10424, 5393, 6727, 14030, 12053
2597, 1024, 3474, 15935, 5673, 10527, 4554, 4158, 13453, 12382, 2402, 11565, 20313, 14314, 9556, 2348
18348, 1026, 19034, 3251, 9149, 220, 7826, 7261, 8273, 12126, 17309, 11413, 6588, 7194, 6893, 18532
10855, 7535, 12458, 16958, 13647, 16218, 8068, 9707, 12980, 5453, 7297, 2201, 12770, 19997, 14983, 10849
3585, 16458, 15987, 19680, 1961, 7101, 16938, 244, 15794, 16369, 9132, 2711, 13412, 715, 2829, 8147
12923, 19150, 9646, 13528, 19760, 6518, 18007, 18987, 12988, 12006, 15114, 6510, 3204, 1810, 7645, 14668
14782, 6560, 11492, 7900, 16592, 12668, 19124, 10845, 17763, 9168, 2005, 8116, 3628, 18356, 2512, 1412
17031, 7475, 3471, 3998, 19585, 19750, 19019, 13796, 1252, 16537, 12637, 114, 3330, 8356, 17641, 21246
1192, 3375, 5447, 17249, 7012, 1666, 15875, 2942, 6707, 11620, 14846, 2788, 13357, 2016, 1905, 11475
8537, 2234, 682, 17058, 18071, 7393, 13352, 20066, 3384, 14212, 19974, 15133, 5862, 5320, 16417, 1765
7575, 18088, 1662, 21261, 15897, 21352, 5743, 3486, 7858, 14915, 7183, 2409, 1481, 12086, 18997, 18062
14214, 12801, 10880, 18054, 19749, 18844, 16286, 12537, 18741, 11960, 2205, 9288, 8501, 86, 7619, 4300
7649, 6234, 1277, 7092, 8467, 18068, 20557, 2040, 6651, 4536, 8279, 5313, 18916, 16437, 19880, 13904
9156, 17589, 16993, 5482, 16082, 8170, 20653, 12507, 5707, 13229, 16704, 3046, 16584, 17342, 4334, 2516
15178, 2111, 6580, 17382, 3915, 6973, 13397, 13005, 8769, 16126, 12754, 19069, 7110, 9110, 5004, 5663
6146, 18734, 4993, 5873, 8289, 14061, 14058, 12987, 8638, 9096, 3433, 755, 18283, 8765, 18800, 7533
18560, 14180, 3924, 16864, 2075, 14222, 4348, 18894, 8294, 7737, 11854, 19123, 11190, 8829, 12805, 8875
** ... 64 like lines cut
*UEL Property, elset=UEL_H_11
80.194, 400889.806, 2, 0.1, 0.0381633683423
*Elset, elset=UEL_H_12
16919, 20686, 6623, 1314, 14169, 17061, 74, 6847, 6239, 12118, 6587, 18000, 9165, 7080, 15165, 16969
8872, 7021, 12058, 2092, 5634, 5994, 13436, 1625, 5540, 8434, 7879, 11936, 18029, 784, 6468, 596
1744, 17831, 13969, 14288, 13124, 1340, 10738, 13286, 8423, 11710, 16078, 14937, 13646, 2048, 1436, 4108
9530, 14016, 1966, 12920, 1737, 6613, 9539, 9346, 19454, 16961, 423, 21234, 5792, 73, 5041, 19035
1008, 19588, 18992, 18541, 968, 19004, 5664, 7222, 2261, 6761, 16357, 9859, 3365, 2982, 781, 21142
18965, 5800, 16794, 19877, 5309, 16910, 20608, 16332, 7897, 15172, 15106, 3220, 5729, 18197, 20349, 21212
16748, 13096, 18025, 17467, 7576, 12524, 7073, 12572, 18064, 8118, 17421, 8455, 21309, 20473, 13802, 19631
7952, 12150, 6872, 3194, 1378, 17817, 12762, 10858, 8382, 4378, 7203, 6423, 8955, 12550, 5651, 7158
7616, 18473, 11063, 1032, 14230, 5773, 16520, 3657, 19064, 3247, 10992, 12187, 14373, 1119, 2020, 20540
11032, 18664, 14269, 13934, 11233, 19233, 13895, 17866, 12404, 7099, 4367, 1771, 5502, 13044, 13909, 5922
1194, 5836, 19980, 5921, 6474, 16697, 5662, 655, 12182, 5529, 12403, 18014, 8869, 12722, 7525, 18048
5884, 4015, 12207, 3305, 11904, 12078, 6282, 11713, 19370, 2130, 1136, 11387, 17324, 17208, 13471, 13193
10541, 3001, 17459, 2417, 12837, 18625, 13891, 17749, 5174, 3088, 17737, 6417, 18827, 6530, 18794, 21102
17012, 6395, 10605, 3678, 8241, 13294, 5676, 17679, 16169, 4333, 18640, 6301, 3805, 19063, 17548, 10995
1096, 329, 17664, 7609, 11718, 7936, 2338, 6912, 726, 10798, 6542, 2727, 8982, 8256, 12735, 1962
1018, 20237, 12497, 1772, 11888, 15043, 6056, 11767, 13017, 11420, 5899, 15015, 15205, 14622, 6369, 20197
12278, 12640, 16886, 2730, 18534, 14914, 5148, 6193, 16877, 5907, 7646, 9523, 13100, 3322, 14293, 20221
1738, 1764, 1114, 11792, 6232, 10602, 10431, 1162, 8081, 21115, 17928, 20, 8958, 6180, 6561, 9317
13498, 12021, 13541, 17532, 6078, 7149, 9342, 2128, 19093, 14344, 1695, 12663, 11885, 8676, 18608, 15950
14736, 21177, 12719, 5711, 654, 18910, 8266, 7077, 8307, 5319, 891, 801, 8985, 18984, 16323, 16945
** ... 64 like lines cut
*UEL Property, elset=UEL_H_12
80.194, 400889.806, 2, 0.1, 0.0393313813622
*Elset, elset=UEL_H_13
5766, 10898, 14812, 19140, 19401, 11128, 1269, 14473, 1041, 13775, 5678, 11290, 2550, 312, 1796, 8584
8006, 16152, 16226, 9463, 8257, 12630, 12757, 3898, 14356, 13075, 1607, 12936, 3879, 18711, 13995, 12652
19825, 978, 11312, 6357, 699, 1489, 1522, 10024, 7134, 9594, 5414, 6172, 7165, 19735, 7958, 18736
252, 11061, 10525, 13376, 11871, 19632, 11051, 484, 8393, 21194, 16556, 19023, 16621, 19221, 17287, 4194
10409, 1916, 19212, 3004, 6470, 8354, 18158, 20011, 2713, 7670, 6137, 13568, 19582, 5308, 13497, 580
21156, 7345, 17797, 17860, 6227, 18602, 1949, 911, 9081, 17579, 9172, 5665, 18399, 11182, 18999, 18140
53, 19188, 14583, 13035, 6155, 2842, 385, 2241, 2011, 20141, 6834, 8208, 5985, 5332, 16870, 2000
20578, 17443, 17916, 8861, 11479, 350, 16878, 3363, 14578, 3168, 10967, 749, 6930, 18433, 19587, 7545
13325, 3860, 17709, 6117, 13877, 2466, 3358, 17157, 16217, 18207, 6184, 19775, 17108, 5905, 3561, 13991
16366, 20021, 13982, 6192, 6149, 11040, 12413, 2975, 13807, 8215, 17282, 6980, 9866, 16496, 3197, 17171
7241, 6228, 19050, 11934, 1520, 16655, 5419, 2964, 7779, 13763, 19389, 851, 11642, 16497, 8938, 12460
2413, 7970, 18357, 6805, 16749, 7213, 1583, 8618, 17015, 1465, 3266, 18955, 17250, 12946, 16260, 3749
2679, 1589, 142, 17760, 5108, 1209, 10985, 14002, 8909, 6919, 14554, 16766, 5611, 17826, 2076, 5813
148, 18986, 8713, 5650, 561, 2135, 11821, 2656, 7114, 21157, 1318, 7184, 16491, 2612, 7895, 359
2760, 11360, 12508, 6386, 1426, 812, 7459, 17602, 6830, 13091, 5369, 12469, 15136, 16755, 5116, 11395
8476, 6529, 5733, 12914, 6757, 10717, 18334, 7676, 16231, 1348, 2885, 2059, 17431, 2119, 16326, 18120
12468, 13712, 17717, 3577, 15821, 7059, 1574, 7876, 10996, 5838, 8093, 21111, 39, 15880, 19730, 13240
18639, 18802, 11024, 9977, 17904, 17742, 1505, 16807, 10524, 3717, 5053, 2792, 2771, 8082, 2912, 13363
15948, 5920, 19838, 12124, 18133, 20376, 16701, 17277, 17047, 19574, 7540, 13218, 14506, 238, 6890, 16214
7318, 7243, 14112, 19272, 9661, 9267, 6990, 13402, 1559, 6948, 10757, 11119, 6711, 5639, 21292, 19308
** ... 64 like lines cut
*UEL Property, elset=UEL_H_13
80.194, 400889.806, 2, 0.1, 0.0404433712134
*Elset, elset=UEL_H_14
703, 16830, 3744, 5659, 12176, 16268, 11688, 16757, 13869, 3235, 5564, 5533, 5473, 11174, 7062, 18880
5557, 11141, 317, 7061, 976, 7007, 19710, 5759, 3165, 559, 2165, 11344, 5898, 14822, 2616, 12993
619, 557, 12636, 17603, 1234, 19598, 5496, 14135, 17136, 12424, 17088, 127, 19522, 12374, 16825, 16793
251, 7308, 10863, 7115, 18561, 2764, 5760, 12345, 6101, 9837, 13081, 17731, 8970, 11928, 1141, 6032
11571, 2122, 12985, 12594, 7441, 7552, 7878, 2063, 743, 11526, 11200, 13263, 11707, 8566, 18485, 3182
2562, 12979, 17652, 8948, 10984, 11297, 6522, 14472, 6595, 6409, 299, 16625, 16788, 5623, 8594, 11980
19054, 12514, 11578, 7200, 17100, 5961, 8940, 16311, 14503, 11150, 14835, 13916, 11906, 5768, 18516, 18643
17739, 15927, 6726, 1564, 17601, 6995, 12660, 20467, 10890, 7755, 6802, 5624, 831, 15918, 838, 6652
8072, 7689, 11772, 16827, 6011, 7973, 13168, 12902, 20046, 16853, 16187, 630, 10725, 16800, 19311, 5649
11301, 6932, 10436, 10733, 11394, 698, 13992, 17190, 1918, 14335, 420, 18793, 7299, 3273, 5159, 6826
11990, 5713, 6967, 821, 15868, 200, 1982, 7105, 6256, 17254, 16478, 3216, 8988, 19946, 17155, 7662
263, 3134, 1352, 7, 16401, 7079, 5163, 4064, 11706, 7001, 13901, 12311, 9268, 12284, 16676, 12491
16596, 12970, 1985, 1036, 16648, 20057, 10606, 15813, 5467, 15933, 16385, 9716, 3101, 14204, 18057, 6725
5103, 15985, 6646, 6829, 17946, 3390, 16210, 16650, 13126, 1674, 8326, 16224, 11309, 17894, 6520, 17109
16331, 8846, 10976, 18948, 1758, 2054, 1040, 2576, 3061, 18740, 18666, 14168, 6046, 1550, 5597, 7027
33, 6401, 753, 12477, 8129, 6661, 11631, 5840, 2609, 12922, 7058, 16405, 9225, 15912, 6005, 18250
2802, 17699, 16355, 12429, 13480, 14158, 11443, 550, 17306, 11819, 2755, 16776, 19361, 17949, 19129, 13987
16136, 4632, 13265, 13132, 6021, 17662, 7324, 12443, 20037, 17809, 11549, 446, 6965, 4071, 11339, 8244
3127, 7143, 5390, 13750, 3108, 1811, 603, 12117, 8167, 13326, 10491, 5751, 13086, 16118, 11958, 2686
4569, 315, 8797, 9182, 1857, 7188, 13972, 12291, 6842, 2659, 17349, 342, 6004, 955, 14485, 16381
** ... 64 like lines cut
*UEL Property, elset=UEL_H_14
80.194, 400889.806, 2, 0.1, 0.0417442347076
*Elset, elset=UEL_H_15
11265, 11377, 13469, 12378, 17536, 8812, 6063, 11616, 262, 6302, 5550, 3337, 16787, 11255, 2833, 5510
11153, 9111, 11548, 16419, 12597, 16262, 19074, 11745, 1350, 266, 3543, 12707, 17882, 17961, 800, 1883
16795, 7930, 10865, 18223, 16935, 5538, 787, 533, 19794, 6908, 18322, 17172, 883, 12986, 1085, 2159
6327, 6933, 17049, 1385, 19206, 11580, 11005, 16203, 401, 16356, 2252, 7321, 11575, 11181, 19527, 2133
734, 11143, 18712, 16240, 508, 16634, 4098, 5382, 8564, 12177, 11039, 17902, 16928, 18492, 3881, 5333
5902, 11362, 2583, 11059, 6041, 75, 17271, 18, 12739, 10444, 4317, 18286, 18584, 5775, 410, 3054
13104, 169, 11275, 9069, 13026, 8729, 20238, 18732, 16406, 535, 21105, 5545, 16909, 11584, 189, 6361
260, 16598, 1950, 11771, 892, 1556, 11103, 11675, 6785, 11930, 3615, 19968, 6176, 417, 2350, 7757
2687, 12341, 6277, 11414, 18273, 1542, 21192, 16706, 21319, 11921, 18264, 17789, 7009, 7132, 10820, 5379
3690, 14887, 7175, 19078, 20255, 17635, 7955, 11300, 7941, 19755, 13774, 17977, 1058, 18701, 11292, 11719
5364, 6501, 18622, 2226, 672, 13120, 12370, 387, 13595, 20280, 17769, 17073, 11402, 465, 11021, 11722
7355, 36, 11720, 2, 3264, 12909, 9281, 8230, 6352, 11830, 17574, 16514, 13912, 1275, 8905, 11030
12682, 8932, 845, 2560, 6029, 343, 5524, 5389, 6223, 17381, 15838, 16998, 8663, 1458, 1613, 16844
11683, 6188, 19603, 17762, 14843, 1261, 2728, 17849, 7818, 18528, 16467, 5528, 5539, 17274, 1992, 10923
10600, 5034, 5999, 16526, 10945, 16400, 5111, 7166, 19956, 12649, 16336, 5950, 18825, 13351, 345, 19444
6903, 2158, 499, 1823, 16296, 10574, 1631, 6720, 13922, 12616, 12613, 2794, 18691, 12787, 12768, 2869
16752, 10505, 11931, 18989, 12562, 925, 9573, 17937, 1112, 16416, 276, 17341, 17079, 1555, 5532, 5995
21294, 2834, 13172, 10988, 16615, 7959, 1806, 7857, 7269, 9715, 10753, 12357, 11015, 3013, 19207, 16500
16842, 11258, 2104, 9284, 18424, 11108, 17408, 1740, 10714, 2328, 18775, 18638, 1185, 2126, 7034, 5479
7051, 11341, 9188, 16098, 5, 2955, 7940, 16939, 1272, 17583, 17016, 19036, 11555, 3082, 16409, 9420
** ... 64 like lines cut
*UEL Property, elset=UEL_H_15
80.194, 400889.806, 2, 0.1, 0.0433985486116
*Elset, elset=UEL_H_16
5988, 18907, 17345, 5394, 12549, 1455, 9002, 12782, 101, 1643, 11876, 3957, 298, 407, 16165, 18185
13353, 2640, 785, 16622, 6862, 2044, 12776, 13256, 17353, 18103, 1427, 12121, 3846, 11383, 3887, 17244
901, 87, 4201, 6659, 16734, 1461, 17519, 2099, 1722, 442, 7127, 29, 1009, 16436, 16372, 21262
6340, 13849, 18906, 11091, 16373, 16278, 5590, 2578, 1637, 6351, 5914, 16980, 20282, 11598, 15951, 18820
18410, 12122, 19936, 15817, 16522, 16932, 17591, 14420, 14, 3002, 11285, 12208, 16249, 17494, 5566, 275
16482, 16774, 192, 2903, 7055, 13274, 10842, 12765, 614, 12104, 11984, 4277, 1072, 8038, 48, 250
7103, 541, 7427, 17037, 21224, 2146, 10829, 7347, 8392, 13532, 6519, 17036, 12536, 17730, 1217, 19365
6672, 14654, 3583, 21188, 7212, 17154, 249, 17357, 17020, 971, 6589, 16633, 16970, 66, 3503, 10563
11154, 18930, 11274, 83, 17327, 12069, 18633, 16095, 116, 5345, 5136, 6974, 12975, 3764, 1140, 16189
14722, 5015, 10973, 313, 10796, 17998, 17090, 18572, 141, 782, 8677, 12179, 1763, 10921, 637, 19491
6456, 16442, 15815, 1892, 12141, 7311, 10878, 3821, 5805, 5881, 2456, 1887, 11100, 18728, 61, 1268
13443, 17807, 6363, 10866, 5415, 7569, 13391, 6000, 11543, 12522, 905, 11927, 5186, 167, 2213, 590
10907, 8619, 3799, 1061, 506, 1448, 6289, 221, 1612, 802, 11622, 15177, 12059, 1274, 527, 5859
16201, 6664, 21249, 10925, 16160, 273, 6354, 13189, 19071, 10465, 5135, 17346, 16595, 11044, 16237, 6722
11458, 523, 910, 1429, 19857, 6132, 6719, 6527, 4227, 17577, 11937, 8728, 5037, 11220, 14224, 16576
846, 42, 16166, 498, 18258, 17127, 7054, 2225, 1372, 16456, 1177, 6012, 10867, 10957, 5932, 876
12306, 10824, 19773, 17832, 13633, 5023, 3650, 14319, 17616, 13106, 16433, 6515, 12547, 11041, 3027, 8291
1035, 16972, 12209, 12159, 13824, 11112, 6142, 13639, 15279, 6100, 543, 16829, 4100, 494, 35, 11408
16649, 2068, 1394, 7163, 338, 16479, 7479, 187, 11457, 11634, 11939, 21138, 10962, 8383, 132, 17089
6278, 21216, 10915, 7522, 5866, 2580, 791, 17907, 796, 11695, 1220, 10838, 12039, 13718, 18183, 3637
** ... 64 like lines cut
*UEL Property, elset=UEL_H_16
80.194, 400889.806, 2, 0.1, 0.0464914031554
** Near-zero C3D4T overlay makes the UEL mesh and NT11 visible in the ODB.
** Its stress and strain are dummy visualization values and are not requested.
*Element, type=C3D4T, elset=VISUALIZATION
1000001, 958, 959, 2708, 2558
1000002, 2596, 2803, 2620, 2533
1000003, 2790, 2537, 664, 2722
1000004, 778, 2606, 2586, 2797
1000005, 2537, 2825, 664, 2843
1000006, 2545, 2836, 2806, 2846
1000007, 2806, 2836, 623, 2846
1000008, 2665, 940, 2551, 2725
1000009, 2537, 2559, 2722, 2862
1000010, 3009, 832, 2954, 2595
1000011, 778, 2606, 777, 2586
1000012, 2537, 2676, 664, 2825
1000013, 47, 739, 2865, 2927
1000014, 2513, 2612, 2560, 2710
1000015, 2574, 2722, 2559, 2862
1000016, 2992, 1001, 3028, 114
1000017, 2565, 2575, 2511, 2832
1000018, 2552, 2667, 714, 2733
1000019, 2530, 2760, 2555, 2674
1000020, 770, 2803, 2694, 2569
** ... 21341 like lines cut
*Material, name=VISUALIZATION_DUMMY
*Elastic
1.0e-9, 0.3
*Conductivity
1.0e-12
*Density
1.0e-12
*Specific Heat
1.0
*Solid Section, elset=VISUALIZATION, material=VISUALIZATION_DUMMY
,
** Surface elements carry the follower punch pressure.
*Element, type=SFM3D3, elset=PUNCH_SURFACE_ELEMENTS
2000001, 1, 1001, 34
2000002, 114, 1001, 1
2000003, 40, 1000, 3
2000004, 3, 1000, 128
2000005, 78, 998, 6
2000006, 6, 998, 120
2000007, 7, 999, 84
2000008, 134, 999, 7
2000009, 34, 949, 35
2000010, 34, 1001, 949
2000011, 35, 979, 36
2000012, 949, 979, 35
2000013, 36, 944, 37
2000014, 36, 979, 944
2000015, 37, 981, 38
2000016, 944, 981, 37
2000017, 38, 946, 39
2000018, 38, 981, 946
2000019, 39, 989, 40
2000020, 946, 989, 39
** ... 142 like lines cut
*Surface Section, elset=PUNCH_SURFACE_ELEMENTS
*Nset, nset=X_SYMM
1, 2, 3, 4, 9, 10, 19, 20, 21, 22, 23, 24, 25, 26, 27, 28
29, 30, 31, 32, 33, 34, 35, 36, 37, 38, 39, 40, 41, 42, 43, 44
45, 46, 47, 48, 49, 50, 51, 52, 53, 54, 55, 56, 57, 58, 59, 60
61, 62, 135, 136, 137, 138, 139, 140, 141, 142, 143, 144, 145, 146, 147, 148
149, 150, 151, 152, 153, 154, 155, 156, 157, 158, 159, 160, 161, 162, 163, 322
323, 324, 325, 326, 327, 328, 329, 330, 331, 332, 333, 334, 335, 336, 337, 338
339, 340, 341, 342, 343, 344, 345, 346, 347, 348, 349, 350, 351, 352, 353, 354
355, 356, 357, 358, 359, 360, 361, 362, 363, 364, 365, 366, 367, 368, 369, 370
371, 372, 373, 374, 375, 376, 377, 378, 379, 380, 381, 382, 383, 384, 385, 386
387, 388, 389, 390, 391, 392, 393, 394, 395, 396, 397, 398, 399, 400, 401, 402
403, 404, 405, 406, 407, 408, 409, 410, 411, 412, 413, 414, 415, 416, 417, 418
419, 420, 421, 422, 423, 424, 425, 426, 427, 428, 429, 430, 431, 432, 433, 434
435, 436, 437, 438, 439, 440, 441, 442, 443, 444, 445, 446, 447, 448, 449, 450
451, 452, 453, 454, 455, 456, 457, 458, 459, 460, 1007, 1008, 1009, 1010, 1011, 1012
1013, 1014, 1015, 1016, 1017, 1018, 1019, 1020, 1021, 1022, 1023, 1024, 1025, 1026, 1027, 1028
1029, 1030, 1031, 1032, 1033, 1034, 1035, 1036, 1037, 1038, 1039, 1040, 1041, 1042, 1043, 1044
1045, 1046, 1047, 1048, 1049, 1050, 1051, 1052, 1053, 1054, 1055, 1056, 1057, 1058, 1059, 1060
1061, 1062, 1063, 1064, 1065, 1066, 1067, 1068, 1069, 1070, 1071, 1072, 1073, 1074, 1075, 1076
1077, 1078, 1079, 1080, 1081, 1082, 1083, 1084, 1085, 1086, 1087, 1088, 1089, 1090, 1091, 1092
1093, 1094, 1095, 1096, 1097, 1098, 1099, 1100, 1101, 1102, 1103, 1104, 1105, 1106, 1107, 1108
1109, 1110, 1111, 1112, 1113, 1114, 1115, 1116, 1117, 1118, 1119, 1120, 1121, 1122, 1123, 1124
1125, 1126, 1127, 1128, 1129, 1130, 1131, 1132, 1133, 1134, 1135, 1136, 1137, 1138, 1139, 1140
1141, 1142, 1143, 1144
*Nset, nset=Y_SYMM
1, 2, 5, 6, 13, 14, 19, 20, 21, 22, 23, 24, 25, 26, 27, 28
29, 30, 31, 32, 33, 63, 64, 65, 66, 67, 68, 69, 70, 71, 72, 73
74, 75, 76, 77, 107, 108, 109, 110, 111, 112, 113, 114, 115, 116, 117, 118
119, 120, 207, 208, 209, 210, 211, 212, 213, 214, 215, 216, 217, 218, 219, 220
221, 251, 252, 253, 254, 255, 256, 257, 258, 259, 260, 261, 262, 263, 264, 600
601, 602, 603, 604, 605, 606, 607, 608, 609, 610, 611, 612, 613, 614, 615, 616
617, 618, 619, 620, 621, 622, 623, 624, 625, 626, 627, 628, 629, 630, 631, 632
633, 634, 635, 636, 637, 638, 639, 640, 641, 642, 643, 644, 645, 646, 647, 648
649, 650, 651, 652, 653, 654, 655, 656, 657, 658, 659, 660, 661, 662, 663, 664
665, 666, 667, 668, 669, 670, 671, 672, 673, 674, 675, 676, 677, 678, 679, 680
681, 682, 683, 684, 685, 686, 687, 688, 689, 690, 691, 692, 693, 694, 695, 696
697, 698, 699, 700, 701, 702, 703, 704, 705, 706, 707, 708, 709, 710, 711, 712
713, 714, 715, 716, 717, 718, 719, 720, 721, 722, 723, 724, 725, 726, 727, 728
729, 730, 731, 732, 733, 734, 735, 736, 737, 1692, 1693, 1694, 1695, 1696, 1697, 1698
1699, 1700, 1701, 1702, 1703, 1704, 1705, 1706, 1707, 1708, 1709, 1710, 1711, 1712, 1713, 1714
1715, 1716, 1717, 1718, 1719, 1720, 1721, 1722, 1723, 1724, 1725, 1726, 1727, 1728, 1729, 1730
1731, 1732, 1733, 1734, 1735, 1736, 1737, 1738, 1739, 1740, 1741, 1742, 1743, 1744, 1745, 1746
1747, 1748, 1749, 1750, 1751, 1752, 1753, 1754, 1755, 1756, 1757, 1758, 1759, 1760, 1761, 1762
1763, 1764, 1765, 1766, 1767, 1768, 1769, 1770, 1771, 1772, 1773, 1774, 1775, 1776, 1777, 1778
1779, 1780, 1781, 1782, 1783, 1784, 1785, 1786, 1787, 1788, 1789, 1790, 1791, 1792, 1793, 1794
1795, 1796, 1797, 1798, 1799, 1800, 1801, 1802, 1803, 1804, 1805, 1806, 1807, 1808, 1809, 1810
1811, 1812, 1813, 1814, 1815, 1816, 1817, 1818, 1819, 1820, 1821, 1822, 1823, 1824, 1825, 1826
1827, 1828, 1829
*Nset, nset=BOTTOM
2, 4, 5, 8, 10, 12, 14, 16, 18, 56, 57, 58, 59, 60, 61, 62
100, 101, 102, 103, 104, 105, 106, 107, 108, 109, 110, 111, 112, 113, 121, 122
123, 124, 125, 126, 127, 157, 158, 159, 160, 161, 162, 163, 186, 187, 188, 189
190, 191, 192, 193, 194, 195, 196, 197, 198, 199, 244, 245, 246, 247, 248, 249
250, 251, 252, 253, 254, 255, 256, 257, 265, 266, 267, 268, 269, 270, 271, 301
302, 303, 304, 305, 306, 307, 308, 309, 310, 311, 312, 313, 314, 876, 877, 878
879, 880, 881, 882, 883, 884, 885, 886, 887, 888, 889, 890, 891, 892, 893, 894
895, 896, 897, 898, 899, 900, 901, 902, 903, 904, 905, 906, 907, 908, 909, 910
911, 912, 913, 914, 915, 916, 917, 918, 919, 920, 921, 922, 923, 924, 925, 926
927, 928, 929, 930, 931, 932, 933, 934, 935, 936, 937, 938, 939, 940, 1421, 1422
1423, 1424, 1425, 1426, 1427, 1428, 1429, 1430, 1431, 1432, 1433, 1434, 1435, 1436, 1437, 1438
1439, 1440, 1441, 1442, 1443, 1444, 1445, 1446, 1447, 1448, 1449, 1450, 1451, 1452, 1453, 1454
1455, 1456, 1457, 1458, 1459, 1460, 1461, 1462, 1463, 1464, 1465, 1466, 1467, 1468, 1469, 1470
1471, 1472, 1473, 1474, 1475, 1476, 1477, 1478, 1479, 1480, 1481, 1482, 1483, 1484, 1485, 1486
1968, 1969, 1970, 1971, 1972, 1973, 1974, 1975, 1976, 1977, 1978, 1979, 1980, 1981, 1982, 1983
1984, 1985, 1986, 1987, 1988, 1989, 1990, 1991, 1992, 1993, 1994, 1995, 1996, 1997, 1998, 1999
2000, 2001, 2002, 2003, 2004, 2005, 2006, 2007, 2008, 2009, 2010, 2011, 2012, 2013, 2014, 2015
2016, 2017, 2018, 2019, 2020, 2021, 2022, 2023, 2024, 2025, 2026, 2027, 2028, 2029, 2030, 2031
2032, 2033, 2376, 2377, 2378, 2379, 2380, 2381, 2382, 2383, 2384, 2385, 2386, 2387, 2388, 2389
2390, 2391, 2392, 2393, 2394, 2395, 2396, 2397, 2398, 2399, 2400, 2401, 2402, 2403, 2404, 2405
2406, 2407, 2408, 2409, 2410, 2411, 2412, 2413, 2414, 2415, 2416, 2417, 2418, 2419, 2420, 2421
2422, 2423, 2424, 2425, 2426, 2427, 2428, 2429, 2430, 2431, 2432, 2433, 2434, 2435, 2436, 2437
2438, 2439, 2440, 2441
*Nset, nset=TOP
1, 3, 6, 7, 9, 11, 13, 15, 17, 34, 35, 36, 37, 38, 39, 40
78, 79, 80, 81, 82, 83, 84, 114, 115, 116, 117, 118, 119, 120, 128, 129
130, 131, 132, 133, 134, 135, 136, 137, 138, 139, 140, 141, 164, 165, 166, 167
168, 169, 170, 200, 201, 202, 203, 204, 205, 206, 222, 223, 224, 225, 226, 227
228, 258, 259, 260, 261, 262, 263, 264, 272, 273, 274, 275, 276, 277, 278, 279
280, 281, 282, 283, 284, 285, 315, 316, 317, 318, 319, 320, 321, 941, 942, 943
944, 945, 946, 947, 948, 949, 950, 951, 952, 953, 954, 955, 956, 957, 958, 959
960, 961, 962, 963, 964, 965, 966, 967, 968, 969, 970, 971, 972, 973, 974, 975
976, 977, 978, 979, 980, 981, 982, 983, 984, 985, 986, 987, 988, 989, 990, 991
992, 993, 994, 995, 996, 997, 998, 999, 1000, 1001, 1002, 1003, 1004, 1005, 1006, 1487
1488, 1489, 1490, 1491, 1492, 1493, 1494, 1495, 1496, 1497, 1498, 1499, 1500, 1501, 1502, 1503
1504, 1505, 1506, 1507, 1508, 1509, 1510, 1511, 1512, 1513, 1514, 1515, 1516, 1517, 1518, 1519
1520, 1521, 1522, 1523, 1524, 1525, 1526, 1527, 1528, 1529, 1530, 1531, 1532, 1533, 1534, 1535
1536, 1537, 1538, 1539, 1540, 1541, 1542, 1543, 1544, 1545, 1546, 1547, 1548, 1549, 1550, 1551
1552, 2034, 2035, 2036, 2037, 2038, 2039, 2040, 2041, 2042, 2043, 2044, 2045, 2046, 2047, 2048
2049, 2050, 2051, 2052, 2053, 2054, 2055, 2056, 2057, 2058, 2059, 2060, 2061, 2062, 2063, 2064
2065, 2066, 2067, 2068, 2069, 2070, 2071, 2072, 2073, 2074, 2075, 2076, 2077, 2078, 2079, 2080
2081, 2082, 2083, 2084, 2085, 2086, 2087, 2088, 2089, 2090, 2091, 2092, 2093, 2094, 2095, 2096
2097, 2098, 2099, 2442, 2443, 2444, 2445, 2446, 2447, 2448, 2449, 2450, 2451, 2452, 2453, 2454
2455, 2456, 2457, 2458, 2459, 2460, 2461, 2462, 2463, 2464, 2465, 2466, 2467, 2468, 2469, 2470
2471, 2472, 2473, 2474, 2475, 2476, 2477, 2478, 2479, 2480, 2481, 2482, 2483, 2484, 2485, 2486
2487, 2488, 2489, 2490, 2491, 2492, 2493, 2494, 2495, 2496, 2497, 2498, 2499, 2500, 2501, 2502
2503, 2504, 2505, 2506, 2507
*Nset, nset=PUNCH_CENTER
1
*Nset, nset=ALL_NODES
1, 2, 3, 4, 5, 6, 7, 8, 9, 10, 11, 12, 13, 14, 15, 16
17, 18, 19, 20, 21, 22, 23, 24, 25, 26, 27, 28, 29, 30, 31, 32
33, 34, 35, 36, 37, 38, 39, 40, 41, 42, 43, 44, 45, 46, 47, 48
49, 50, 51, 52, 53, 54, 55, 56, 57, 58, 59, 60, 61, 62, 63, 64
65, 66, 67, 68, 69, 70, 71, 72, 73, 74, 75, 76, 77, 78, 79, 80
81, 82, 83, 84, 85, 86, 87, 88, 89, 90, 91, 92, 93, 94, 95, 96
97, 98, 99, 100, 101, 102, 103, 104, 105, 106, 107, 108, 109, 110, 111, 112
113, 114, 115, 116, 117, 118, 119, 120, 121, 122, 123, 124, 125, 126, 127, 128
129, 130, 131, 132, 133, 134, 135, 136, 137, 138, 139, 140, 141, 142, 143, 144
145, 146, 147, 148, 149, 150, 151, 152, 153, 154, 155, 156, 157, 158, 159, 160
161, 162, 163, 164, 165, 166, 167, 168, 169, 170, 171, 172, 173, 174, 175, 176
177, 178, 179, 180, 181, 182, 183, 184, 185, 186, 187, 188, 189, 190, 191, 192
193, 194, 195, 196, 197, 198, 199, 200, 201, 202, 203, 204, 205, 206, 207, 208
209, 210, 211, 212, 213, 214, 215, 216, 217, 218, 219, 220, 221, 222, 223, 224
225, 226, 227, 228, 229, 230, 231, 232, 233, 234, 235, 236, 237, 238, 239, 240
241, 242, 243, 244, 245, 246, 247, 248, 249, 250, 251, 252, 253, 254, 255, 256
257, 258, 259, 260, 261, 262, 263, 264, 265, 266, 267, 268, 269, 270, 271, 272
273, 274, 275, 276, 277, 278, 279, 280, 281, 282, 283, 284, 285, 286, 287, 288
289, 290, 291, 292, 293, 294, 295, 296, 297, 298, 299, 300, 301, 302, 303, 304
305, 306, 307, 308, 309, 310, 311, 312, 313, 314, 315, 316, 317, 318, 319, 320
** ... 270 like lines cut
** Classical quarter-block constraints.
*Boundary
X_SYMM, 1, 1, 0.0
Y_SYMM, 2, 2, 0.0
BOTTOM, 3, 3, 0.0
TOP, 1, 2, 0.0
*Amplitude, name=LOAD_RAMP, definition=TABULAR
0.0, 0.0, 1.0, 1.0
*Step, name=Compression, nlgeom=YES, inc=10000, unsymm=YES
*Coupled Temperature-displacement, deltmx=0.05
0.01, 1.0, 1.0e-8, 0.05
*Dload, amplitude=LOAD_RAMP
PUNCH_SURFACE_ELEMENTS, P, -320
*Restart, write, frequency=0
*Output, field, frequency=5
*Node Output
U, NT, RF
*Output, history, frequency=1
*Node Output, nset=PUNCH_CENTER
U3, NT11, RF3
*End Step
