*Heading
Plane strain swell-induced bending, generated u-p-mu Quad8 variant
** Converted from gelUEL/gelUEL/code/SwellInducedBending.inp
** The generated UEL uses p on DOF 11 and mu on DOF 12.
** Stored mu = physical mu - initMU, so initial DOF 12 is zero.
** GelVisualization duplicates the gel UEL with negligible-stiffness
** CPE8R elements so Abaqus/CAE displays both physical mesh layers.
** Its stress and strain are visualization artifacts, not UEL results.
*Parameter
phi0 = 0.999
theta = 25.0 + 273.0
initMU = -14382.975
** Effective reference for the shifted computational mu field.
mu0 = -initMU
tf = 3600.0*6.0
G = 50.e6
** A small rubber compressibility avoids singular CPE8H pressure modes.
nuRubber = 0.499
** Abaqus neo-Hooke D1=2/K0 with K0=2G(1+nu)/(3(1-2nu)).
D = 3.0*(1.0-2.0*nuRubber)/(G*(1.0+nuRubber))
C10 = 0.5*G
*Node
1, 0.0500000007, 0.00249999994
2, 0.049253732, 0.00249999994
3, 0.0485074632, 0.00249999994
4, 0.0477611944, 0.00249999994
5, 0.0470149256, 0.00249999994
6, 0.0462686568, 0.00249999994
7, 0.0455223881, 0.00249999994
8, 0.0447761193, 0.00249999994
9, 0.0440298505, 0.00249999994
10, 0.0432835817, 0.00249999994
11, 0.042537313, 0.00249999994
12, 0.0417910442, 0.00249999994
13, 0.0410447754, 0.00249999994
14, 0.0402985066, 0.00249999994
15, 0.0395522378, 0.00249999994
16, 0.0388059691, 0.00249999994
17, 0.0380597003, 0.00249999994
18, 0.0373134315, 0.00249999994
19, 0.0365671627, 0.00249999994
20, 0.0358208939, 0.00249999994
** ... 1333 like lines cut
*Element, type=CPE8H, elset=RubberSet
1, 1, 2, 70, 69, 477, 478, 479, 480
2, 2, 3, 71, 70, 481, 482, 483, 478
3, 3, 4, 72, 71, 484, 485, 486, 482
4, 4, 5, 73, 72, 487, 488, 489, 485
5, 5, 6, 74, 73, 490, 491, 492, 488
6, 6, 7, 75, 74, 493, 494, 495, 491
7, 7, 8, 76, 75, 496, 497, 498, 494
8, 8, 9, 77, 76, 499, 500, 501, 497
9, 9, 10, 78, 77, 502, 503, 504, 500
10, 10, 11, 79, 78, 505, 506, 507, 503
11, 11, 12, 80, 79, 508, 509, 510, 506
12, 12, 13, 81, 80, 511, 512, 513, 509
13, 13, 14, 82, 81, 514, 515, 516, 512
14, 14, 15, 83, 82, 517, 518, 519, 515
15, 15, 16, 84, 83, 520, 521, 522, 518
16, 16, 17, 85, 84, 523, 524, 525, 521
17, 17, 18, 86, 85, 526, 527, 528, 524
18, 18, 19, 87, 86, 529, 530, 531, 527
19, 19, 20, 88, 87, 532, 533, 534, 530
20, 20, 21, 89, 88, 535, 536, 537, 533
** ... 181 like lines cut
*User Element, Type=U1, Nodes=8, Coordinates=2, Properties=9, Variables=9, Unsymm
1, 2, 11, 12
5, 1, 2, 12
*Element, type=U1, elset=GelSet
202, 68, 67, 345, 277, 676, 949, 950, 951
203, 67, 66, 346, 345, 673, 952, 953, 949
204, 66, 65, 347, 346, 670, 954, 955, 952
205, 65, 64, 348, 347, 667, 956, 957, 954
206, 64, 63, 349, 348, 664, 958, 959, 956
207, 63, 62, 350, 349, 661, 960, 961, 958
208, 62, 61, 351, 350, 658, 962, 963, 960
209, 61, 60, 352, 351, 655, 964, 965, 962
210, 60, 59, 353, 352, 652, 966, 967, 964
211, 59, 58, 354, 353, 649, 968, 969, 966
212, 58, 57, 355, 354, 646, 970, 971, 968
213, 57, 56, 356, 355, 643, 972, 973, 970
214, 56, 55, 357, 356, 640, 974, 975, 972
215, 55, 54, 358, 357, 637, 976, 977, 974
216, 54, 53, 359, 358, 634, 978, 979, 976
217, 53, 52, 360, 359, 631, 980, 981, 978
218, 52, 51, 361, 360, 628, 982, 983, 980
219, 51, 50, 362, 361, 625, 984, 985, 982
220, 50, 49, 363, 362, 622, 986, 987, 984
221, 49, 48, 364, 363, 619, 988, 989, 986
** ... 181 like lines cut
*Element, type=CPE8R, elset=GelVisualization
10202, 68, 67, 345, 277, 676, 949, 950, 951
10203, 67, 66, 346, 345, 673, 952, 953, 949
10204, 66, 65, 347, 346, 670, 954, 955, 952
10205, 65, 64, 348, 347, 667, 956, 957, 954
10206, 64, 63, 349, 348, 664, 958, 959, 956
10207, 63, 62, 350, 349, 661, 960, 961, 958
10208, 62, 61, 351, 350, 658, 962, 963, 960
10209, 61, 60, 352, 351, 655, 964, 965, 962
10210, 60, 59, 353, 352, 652, 966, 967, 964
10211, 59, 58, 354, 353, 649, 968, 969, 966
10212, 58, 57, 355, 354, 646, 970, 971, 968
10213, 57, 56, 356, 355, 643, 972, 973, 970
10214, 56, 55, 357, 356, 640, 974, 975, 972
10215, 55, 54, 358, 357, 637, 976, 977, 974
10216, 54, 53, 359, 358, 634, 978, 979, 976
10217, 53, 52, 360, 359, 631, 980, 981, 978
10218, 52, 51, 361, 360, 628, 982, 983, 980
10219, 51, 50, 362, 361, 625, 984, 985, 982
10220, 50, 49, 363, 362, 622, 986, 987, 984
10221, 49, 48, 364, 363, 619, 988, 989, 986
** ... 181 like lines cut
*Nset, nset=RubberSet
       1,        2,        3,        4,        5,        6,        7,        8,        9,       10,       11,       12,       13,       14,       15,       16
      17,       18,       19,       20,       21,       22,       23,       24,       25,       26,       27,       28,       29,       30,       31,       32
      33,       34,       35,       36,       37,       38,       39,       40,       41,       42,       43,       44,       45,       46,       47,       48
      49,       50,       51,       52,       53,       54,       55,       56,       57,       58,       59,       60,       61,       62,       63,       64
      65,       66,       67,       68,       69,       70,       71,       72,       73,       74,       75,       76,       77,       78,       79,       80
      81,       82,       83,       84,       85,       86,       87,       88,       89,       90,       91,       92,       93,       94,       95,       96
      97,       98,       99,      100,      101,      102,      103,      104,      105,      106,      107,      108,      109,      110,      111,      112
     113,      114,      115,      116,      117,      118,      119,      120,      121,      122,      123,      124,      125,      126,      127,      128
     129,      130,      131,      132,      133,      134,      135,      136,      137,      138,      139,      140,      141,      142,      143,      144
     145,      146,      147,      148,      149,      150,      151,      152,      153,      154,      155,      156,      157,      158,      159,      160
     161,      162,      163,      164,      165,      166,      167,      168,      169,      170,      171,      172,      173,      174,      175,      176
     177,      178,      179,      180,      181,      182,      183,      184,      185,      186,      187,      188,      189,      190,      191,      192
     193,      194,      195,      196,      197,      198,      199,      200,      201,      202,      203,      204,      205,      206,      207,      208
     209,      210,      211,      212,      213,      214,      215,      216,      217,      218,      219,      220,      221,      222,      223,      224
     225,      226,      227,      228,      229,      230,      231,      232,      233,      234,      235,      236,      237,      238,      239,      240
     241,      242,      243,      244,      245,      246,      247,      248,      249,      250,      251,      252,      253,      254,      255,      256
     257,      258,      259,      260,      261,      262,      263,      264,      265,      266,      267,      268,      269,      270,      271,      272
     477,      478,      479,      480,      481,      482,      483,      484,      485,      486,      487,      488,      489,      490,      491,      492
     493,      494,      495,      496,      497,      498,      499,      500,      501,      502,      503,      504,      505,      506,      507,      508
     509,      510,      511,      512,      513,      514,      515,      516,      517,      518,      519,      520,      521,      522,      523,      524
** ... 27 like lines cut
*Elset, elset=RubberSet
       1,        2,        3,        4,        5,        6,        7,        8,        9,       10,       11,       12,       13,       14,       15,       16
      17,       18,       19,       20,       21,       22,       23,       24,       25,       26,       27,       28,       29,       30,       31,       32
      33,       34,       35,       36,       37,       38,       39,       40,       41,       42,       43,       44,       45,       46,       47,       48
      49,       50,       51,       52,       53,       54,       55,       56,       57,       58,       59,       60,       61,       62,       63,       64
      65,       66,       67,       68,       69,       70,       71,       72,       73,       74,       75,       76,       77,       78,       79,       80
      81,       82,       83,       84,       85,       86,       87,       88,       89,       90,       91,       92,       93,       94,       95,       96
      97,       98,       99,      100,      101,      102,      103,      104,      105,      106,      107,      108,      109,      110,      111,      112
     113,      114,      115,      116,      117,      118,      119,      120,      121,      122,      123,      124,      125,      126,      127,      128
     129,      130,      131,      132,      133,      134,      135,      136,      137,      138,      139,      140,      141,      142,      143,      144
     145,      146,      147,      148,      149,      150,      151,      152,      153,      154,      155,      156,      157,      158,      159,      160
     161,      162,      163,      164,      165,      166,      167,      168,      169,      170,      171,      172,      173,      174,      175,      176
     177,      178,      179,      180,      181,      182,      183,      184,      185,      186,      187,      188,      189,      190,      191,      192
     193,      194,      195,      196,      197,      198,      199,      200,      201
*Nset, nset=GelSet
       1,        2,        3,        4,        5,        6,        7,        8,        9,       10,       11,       12,       13,       14,       15,       16
      17,       18,       19,       20,       21,       22,       23,       24,       25,       26,       27,       28,       29,       30,       31,       32
      33,       34,       35,       36,       37,       38,       39,       40,       41,       42,       43,       44,       45,       46,       47,       48
      49,       50,       51,       52,       53,       54,       55,       56,       57,       58,       59,       60,       61,       62,       63,       64
      65,       66,       67,       68,      273,      274,      275,      276,      277,      278,      279,      280,      281,      282,      283,      284
     285,      286,      287,      288,      289,      290,      291,      292,      293,      294,      295,      296,      297,      298,      299,      300
     301,      302,      303,      304,      305,      306,      307,      308,      309,      310,      311,      312,      313,      314,      315,      316
     317,      318,      319,      320,      321,      322,      323,      324,      325,      326,      327,      328,      329,      330,      331,      332
     333,      334,      335,      336,      337,      338,      339,      340,      341,      342,      343,      344,      345,      346,      347,      348
     349,      350,      351,      352,      353,      354,      355,      356,      357,      358,      359,      360,      361,      362,      363,      364
     365,      366,      367,      368,      369,      370,      371,      372,      373,      374,      375,      376,      377,      378,      379,      380
     381,      382,      383,      384,      385,      386,      387,      388,      389,      390,      391,      392,      393,      394,      395,      396
     397,      398,      399,      400,      401,      402,      403,      404,      405,      406,      407,      408,      409,      410,      411,      412
     413,      414,      415,      416,      417,      418,      419,      420,      421,      422,      423,      424,      425,      426,      427,      428
     429,      430,      431,      432,      433,      434,      435,      436,      437,      438,      439,      440,      441,      442,      443,      444
     445,      446,      447,      448,      449,      450,      451,      452,      453,      454,      455,      456,      457,      458,      459,      460
     461,      462,      463,      464,      465,      466,      467,      468,      469,      470,      471,      472,      473,      474,      475,      476
     477,      481,      484,      487,      490,      493,      496,      499,      502,      505,      508,      511,      514,      517,      520,      523
     526,      529,      532,      535,      538,      541,      544,      547,      550,      553,      556,      559,      562,      565,      568,      571
     574,      577,      580,      583,      586,      589,      592,      595,      598,      601,      604,      607,      610,      613,      616,      619
** ... 27 like lines cut
*Elset, elset=GelSet
     202,      203,      204,      205,      206,      207,      208,      209,      210,      211,      212,      213,      214,      215,      216,      217
     218,      219,      220,      221,      222,      223,      224,      225,      226,      227,      228,      229,      230,      231,      232,      233
     234,      235,      236,      237,      238,      239,      240,      241,      242,      243,      244,      245,      246,      247,      248,      249
     250,      251,      252,      253,      254,      255,      256,      257,      258,      259,      260,      261,      262,      263,      264,      265
     266,      267,      268,      269,      270,      271,      272,      273,      274,      275,      276,      277,      278,      279,      280,      281
     282,      283,      284,      285,      286,      287,      288,      289,      290,      291,      292,      293,      294,      295,      296,      297
     298,      299,      300,      301,      302,      303,      304,      305,      306,      307,      308,      309,      310,      311,      312,      313
     314,      315,      316,      317,      318,      319,      320,      321,      322,      323,      324,      325,      326,      327,      328,      329
     330,      331,      332,      333,      334,      335,      336,      337,      338,      339,      340,      341,      342,      343,      344,      345
     346,      347,      348,      349,      350,      351,      352,      353,      354,      355,      356,      357,      358,      359,      360,      361
     362,      363,      364,      365,      366,      367,      368,      369,      370,      371,      372,      373,      374,      375,      376,      377
     378,      379,      380,      381,      382,      383,      384,      385,      386,      387,      388,      389,      390,      391,      392,      393
     394,      395,      396,      397,      398,      399,      400,      401,      402
*Nset, nset=Nall
       1,        2,        3,        4,        5,        6,        7,        8,        9,       10,       11,       12,       13,       14,       15,       16
      17,       18,       19,       20,       21,       22,       23,       24,       25,       26,       27,       28,       29,       30,       31,       32
      33,       34,       35,       36,       37,       38,       39,       40,       41,       42,       43,       44,       45,       46,       47,       48
      49,       50,       51,       52,       53,       54,       55,       56,       57,       58,       59,       60,       61,       62,       63,       64
      65,       66,       67,       68,       69,       70,       71,       72,       73,       74,       75,       76,       77,       78,       79,       80
      81,       82,       83,       84,       85,       86,       87,       88,       89,       90,       91,       92,       93,       94,       95,       96
      97,       98,       99,      100,      101,      102,      103,      104,      105,      106,      107,      108,      109,      110,      111,      112
     113,      114,      115,      116,      117,      118,      119,      120,      121,      122,      123,      124,      125,      126,      127,      128
     129,      130,      131,      132,      133,      134,      135,      136,      137,      138,      139,      140,      141,      142,      143,      144
     145,      146,      147,      148,      149,      150,      151,      152,      153,      154,      155,      156,      157,      158,      159,      160
     161,      162,      163,      164,      165,      166,      167,      168,      169,      170,      171,      172,      173,      174,      175,      176
     177,      178,      179,      180,      181,      182,      183,      184,      185,      186,      187,      188,      189,      190,      191,      192
     193,      194,      195,      196,      197,      198,      199,      200,      201,      202,      203,      204,      205,      206,      207,      208
     209,      210,      211,      212,      213,      214,      215,      216,      217,      218,      219,      220,      221,      222,      223,      224
     225,      226,      227,      228,      229,      230,      231,      232,      233,      234,      235,      236,      237,      238,      239,      240
     241,      242,      243,      244,      245,      246,      247,      248,      249,      250,      251,      252,      253,      254,      255,      256
     257,      258,      259,      260,      261,      262,      263,      264,      265,      266,      267,      268,      269,      270,      271,      272
     273,      274,      275,      276,      277,      278,      279,      280,      281,      282,      283,      284,      285,      286,      287,      288
     289,      290,      291,      292,      293,      294,      295,      296,      297,      298,      299,      300,      301,      302,      303,      304
     305,      306,      307,      308,      309,      310,      311,      312,      313,      314,      315,      316,      317,      318,      319,      320
** ... 65 like lines cut
*Nset, nset=Top
     273,      274,      275,      276,      279,      280,      281,      282,      283,      286,      287,      288,      289,      290,      291,      292
     293,      294,      295,      296,      297,      298,      299,      300,      301,      302,      303,      304,      305,      306,      307,      308
     309,      310,      311,      312,      313,      314,      315,      316,      317,      318,      319,      320,      321,      322,      323,      324
     325,      326,      327,      328,      329,      330,      331,      332,      333,      334,      335,      336,      337,      338,      339,      340
     341,      342,      343,      344,     1220,     1223,     1225,     1227,     1229,     1231,     1233,     1235,     1237,     1239,     1241,     1243
    1245,     1247,     1249,     1251,     1253,     1255,     1257,     1259,     1261,     1263,     1265,     1267,     1269,     1271,     1273,     1275
    1277,     1279,     1281,     1283,     1285,     1287,     1289,     1291,     1293,     1295,     1297,     1299,     1301,     1303,     1305,     1307
    1309,     1311,     1313,     1315,     1317,     1319,     1321,     1323,     1325,     1327,     1329,     1331,     1333,     1335,     1337,     1339
    1341,     1343,     1345,     1347,     1349,     1351,     1353
*Nset, nset=Left
      68,      136,      204,      272,      275,      277,      278,      677,      812,      947,      951,     1086,     1221
*Nset, nset=Right
       1,       69,      137,      205,      276,      284,      285,      480,      681,      816,     1082,     1217,     1352
*Nset, nset=Right1
       1,       69,      137,      284,      285,      480,      681,      816,     1082,     1217,     1352
** Match the original Quad4 node-to-surface contact sampling. The six Quad8
** midside nodes remain in Right1 so the Slider MPC keeps the edge straight,
** but putting them in both Slider and contact overconstrains the edge.
*Nset, nset=RightContact
       1,       69,      137,      205,      276,      284,      285
*Nset, nset=n1
205
*Nset, nset=n2
276
*Nset, nset=PinnedCorner
272
*Surface, Type=Node, Name=RightSurf
RightContact
*Surface, Type=Node, Name=TopSurf
Top
*Node
1355, 0.0, 0.0
1356, 1.0e-5, 0.0
1357, 1.0e-5, 1.0e-5
1358, 0.0, 1.0e-5
*Nset, nset=tempElement
1355,1356,1357,1358
*Element, Type=CPE4T, elset=tempElement
403,1355,1356,1357,1358
*Node
1354,0.0,0.e-3
*Nset, Nset=RigidRef
1354
*Surface, type=SEGMENTS, name=RigidSurf
START,0.0,   0.e-3
LINE, 0.0, -50.e-3
*Rigid Body, ref node=RigidRef, analytical surface=RigidSurf
*uel property, elset=GelSet
*Include, Input=ElasticGelProps_upmu_quad8.inp
*Solid section, elset=RubberSet, material=RubberMaterial
*Material, name=RubberMaterial
*Hyperelastic, neo hooke
<C10>,<D>
** Display-only overlay. Do not interpret its S or E fields.
*Solid section, elset=GelVisualization, material=VisualizationMaterial
*Material, name=VisualizationMaterial
*Elastic
1.e-20, 0.3
*Solid section, elset=tempElement, material=Material-2
*Material, name=Material-2
*Elastic
1.e-20
*Conductivity
1.0
*Density
1.0
*Specific heat
1.0
*MPC
Slider, right1, n1, n2
*Contact Pair, Interaction=int, Type=node to surface
RightSurf,RigidSurf
TopSurf,RigidSurf
*Surface Interaction, name=int
*Friction
0.0
*Surface Behavior, pressure-overclosure=hard
** Computational mu=0 is the initial dry physical chemical potential.
** Abaqus temperature initial conditions address DOF 11, which is p here.
*Initial conditions, type=temperature
tempElement, 0.0
** This decay is physical mu(t)-initMU: zero initially, -initMU finally.
*Amplitude, name=chemProfile, definition=decay
<mu0>,<initMU>,0.0,300.0
*Step, Name=Swell, nlgeom=yes, inc=50000
** DELTMX is omitted because Abaqus also applies it to pressure DOF 11.
*Coupled temperature-displacement, creep=none
10.0,<tf>,1.e-6,100.0
*Controls, Parameters=Line Search
10,1.0,0.0001,0.25,0.10
*Controls, Parameters=Time Incrementation
,,,,,,,10,,,,,,
*Boundary
Left,1,1
PinnedCorner,1,2
RigidRef,encastre
*Boundary, amplitude=chemProfile
Top,12,12,1.0
*Boundary
tempElement,encastre
tempElement,11,11,0.0
*Output, field, number interval=100, time marks=no
*node output, nset=Nall
u
*node output, nset=tempElement
u
*node output, nset=RigidRef
u
*element output, elset=RubberSet
le
*End Step
